pglib_opf_case39_epri/pglib_opf_case39_epri_2regions.m
% -------------------------------------------------------------------------
% Partitioned MATPOWER Case File
% Copyright (c) 2025 Milad Hasanzadeh
% Generated on: 2026-06-09
% This file contains partitioned data for 2 regions


% -------------------- mpc_regionR1 --------------------

mpc_regionR1.version = '2';
mpc_regionR1.baseMVA = 100.0000;
mpc_regionR1.bus = [
%	bus_i       type        Pd          Qd          Gs          Bs          area        Vm          Va          baseKV      zone        Vmax        Vmin        
	 1	 1	 320	 153	 0	 0	 3	 1	 0	 345	 1	 1.06	 0.94;
	 2	 1	 329	 32.3	 0	 0	 3	 1	 0	 345	 1	 1.06	 0.94;
	 3	 1	 0	 0	 0	 0	 2	 1	 0	 345	 1	 1.06	 0.94;
	 4	 1	 0	 0	 0	 0	 3	 1	 0	 345	 1	 1.06	 0.94;
	 5	 1	 680	 103	 0	 0	 3	 1	 0	 345	 1	 1.06	 0.94;
	 6	 1	 274	 115	 0	 0	 3	 1	 0	 345	 1	 1.06	 0.94;
	 7	 1	 0	 0	 0	 0	 3	 1	 0	 345	 1	 1.06	 0.94;
	 8	 1	 247.5	 84.6	 0	 0	 3	 1	 0	 345	 1	 1.06	 0.94;
	 9	 1	 308.6	-92.2	 0	 0	 3	 1	 0	 345	 1	 1.06	 0.94;
	 10	 2	 0	 0	 0	 0	 3	 1	 0	 345	 1	 1.06	 0.94;
	 11	 2	 0	 0	 0	 0	 3	 1	 0	 345	 1	 1.06	 0.94;
	 12	 2	 0	 0	 0	 0	 3	 1	 0	 345	 1	 1.06	 0.94;
	 13	 2	 0	 0	 0	 0	 3	 1	 0	 345	 1	 1.06	 0.94;
];

mpc_regionR1.gen = [
%	bus         Pg          Qg          Qmax        Qmin        Vg          mBase       status      Pmax        Pmin        Pc1         Pc2         Qc1min      Qc1max      Qc2min      Qc2max      ramp_agc    ramp_10     ramp_30     ramp_q      apf         
	 10	 326	 125	 250	 0	 1	 100	 1	 652	 0;
	 11	 254	 83.5	 167	 0	 1	 100	 1	 508	 0;
	 12	 343.5	 100	 300	-100	 1	 100	 1	 687	 0;
	 13	 290	 120	 240	 0	 1	 100	 1	 580	 0;
];

mpc_regionR1.branch = [
%	fbus        tbus        r           x           b           rateA       rateB       rateC       ratio       angle       status      angmin      angmax      
	 1	 2	 0.0009	 0.0094	 0.171	 600	 600	 600	 0	 0	 1	-30	 30;
	 2	 3	 0.0007	 0.0089	 0.1342	 600	 600	 600	 0	 0	 1	-30	 30;
	 2	 4	 0.0016	 0.0195	 0.304	 600	 600	 2500	 0	 0	 1	-30	 30;
	 2	 6	 0.0008	 0.0135	 0.2548	 600	 600	 600	 0	 0	 1	-30	 30;
	 2	 9	 0.0003	 0.0059	 0.068	 600	 600	 600	 0	 0	 1	-30	 30;
	 4	 5	 0.0007	 0.0138	 0	 900	 900	 2500	 1.06	 0	 1	-30	 30;
	 4	 10	 0.0007	 0.0142	 0	 900	 900	 2500	 1.07	 0	 1	-30	 30;
	 5	 11	 0.0009	 0.018	 0	 900	 900	 2500	 1.009	 0	 1	-30	 30;
	 6	 7	 0.0008	 0.014	 0.2565	 900	 900	 900	 0	 0	 1	-30	 30;
	 7	 8	 0.0006	 0.0096	 0.1846	 600	 600	 600	 0	 0	 1	-30	 30;
	 7	 12	 0	 0.0143	 0	 900	 900	 2500	 1.025	 0	 1	-30	 30;
	 8	 9	 0.0022	 0.035	 0.361	 600	 600	 600	 0	 0	 1	-30	 30;
	 8	 13	 0.0005	 0.0272	 0	 900	 900	 2500	 0	 0	 1	-30	 30;
];

mpc_regionR1.gencost = [
%	2           startup     shutdown    n           c(n-1)...c0 
	 2	 0	 0	 3	 0	 34.844643	 0;
	 2	 0	 0	 3	 0	 24.652994	 0;
	 2	 0	 0	 3	 0	 32.306483	 0;
	 2	 0	 0	 3	 0	 18.157477	 0;
];


% -------------------- mpc_regionR2 --------------------

mpc_regionR2.version = '2';
mpc_regionR2.baseMVA = 100.0000;
mpc_regionR2.bus = [
%	bus_i       type        Pd          Qd          Gs          Bs          area        Vm          Va          baseKV      zone        Vmax        Vmin        
	 1	 1	 97.6	 44.2	 0	 0	 2	 1	 0	 345	 1	 1.06	 0.94;
	 2	 1	 0	 0	 0	 0	 2	 1	 0	 345	 1	 1.06	 0.94;
	 3	 1	 322	 2.4	 0	 0	 2	 1	 0	 345	 1	 1.06	 0.94;
	 4	 1	 500	 184	 0	 0	 1	 1	 0	 345	 1	 1.06	 0.94;
	 5	 1	 0	 0	 0	 0	 1	 1	 0	 345	 1	 1.06	 0.94;
	 6	 1	 0	 0	 0	 0	 1	 1	 0	 345	 1	 1.06	 0.94;
	 7	 1	 233.8	 84	 0	 0	 1	 1	 0	 345	 1	 1.06	 0.94;
	 8	 1	 522	 176.6	 0	 0	 1	 1	 0	 345	 1	 1.06	 0.94;
	 9	 1	 6.5	-66.6	 0	 0	 1	 1	 0	 345	 1	 1.06	 0.94;
	 10	 1	 0	 0	 0	 0	 1	 1	 0	 345	 1	 1.06	 0.94;
	 11	 1	 0	 0	 0	 0	 1	 1	 0	 345	 1	 1.06	 0.94;
	 12	 1	 8.53	 88	 0	 0	 1	 1	 0	 345	 1	 1.06	 0.94;
	 13	 1	 0	 0	 0	 0	 1	 1	 0	 345	 1	 1.06	 0.94;
	 14	 1	 0	 0	 0	 0	 1	 1	 0	 345	 1	 1.06	 0.94;
	 15	 1	 158	 30	 0	 0	 2	 1	 0	 345	 1	 1.06	 0.94;
	 16	 1	 224	 47.2	 0	 0	 2	 1	 0	 345	 1	 1.06	 0.94;
	 17	 1	 139	 17	 0	 0	 2	 1	 0	 345	 1	 1.06	 0.94;
	 18	 1	 281	 75.5	 0	 0	 2	 1	 0	 345	 1	 1.06	 0.94;
	 19	 1	 206	 27.6	 0	 0	 3	 1	 0	 345	 1	 1.06	 0.94;
	 20	 1	 283.5	 26.9	 0	 0	 3	 1	 0	 345	 1	 1.06	 0.94;
	 21	 2	 0	 0	 0	 0	 2	 1	 0	 345	 1	 1.06	 0.94;
	 22	 3	 9.2	 4.6	 0	 0	 1	 1	 0	 345	 1	 1.06	 0.94;
	 23	 2	 0	 0	 0	 0	 1	 1	 0	 345	 1	 1.06	 0.94;
	 24	 2	 0	 0	 0	 0	 2	 1	 0	 345	 1	 1.06	 0.94;
	 25	 2	 0	 0	 0	 0	 3	 1	 0	 345	 1	 1.06	 0.94;
	 26	 2	 1104	 250	 0	 0	 1	 1	 0	 345	 1	 1.06	 0.94;
];

mpc_regionR2.gen = [
%	bus         Pg          Qg          Qmax        Qmin        Vg          mBase       status      Pmax        Pmin        Pc1         Pc2         Qc1min      Qc1max      Qc2min      Qc2max      ramp_agc    ramp_10     ramp_30     ramp_q      apf         
	 21	 520	 270	 400	 140	 1	 100	 1	 1040	 0;
	 22	 323	 100	 300	-100	 1	 100	 1	 646	 0;
	 23	 362.5	 225	 300	 150	 1	 100	 1	 725	 0;
	 24	 282	 125	 250	 0	 1	 100	 1	 564	 0;
	 25	 432.5	 75	 300	-150	 1	 100	 1	 865	 0;
	 26	 550	 100	 300	-100	 1	 100	 1	 1100	 0;
];

mpc_regionR2.branch = [
%	fbus        tbus        r           x           b           rateA       rateB       rateC       ratio       angle       status      angmin      angmax      
	 1	 2	 0.0035	 0.0411	 0.6987	 600	 600	 600	 0	 0	 1	-30	 30;
	 1	 26	 0.001	 0.025	 0.75	 1000	 1000	 1000	 0	 0	 1	-30	 30;
	 2	 3	 0.0013	 0.0151	 0.2572	 500	 500	 500	 0	 0	 1	-30	 30;
	 2	 16	 0.007	 0.0086	 0.146	 500	 500	 500	 0	 0	 1	-30	 30;
	 2	 21	 0	 0.0181	 0	 900	 900	 2500	 1.025	 0	 1	-30	 30;
	 3	 4	 0.0013	 0.0213	 0.2214	 500	 500	 500	 0	 0	 1	-30	 30;
	 3	 15	 0.0011	 0.0133	 0.2138	 500	 500	 500	 0	 0	 1	-30	 30;
	 4	 5	 0.0008	 0.0128	 0.1342	 600	 600	 600	 0	 0	 1	-30	 30;
	 4	 14	 0.0008	 0.0129	 0.1382	 500	 500	 500	 0	 0	 1	-30	 30;
	 5	 6	 0.0002	 0.0026	 0.0434	 1200	 1200	 1200	 0	 0	 1	-30	 30;
	 5	 8	 0.0008	 0.0112	 0.1476	 900	 900	 900	 0	 0	 1	-30	 30;
	 6	 7	 0.0006	 0.0092	 0.113	 900	 900	 900	 0	 0	 1	-30	 30;
	 6	 11	 0.0007	 0.0082	 0.1389	 480	 480	 480	 0	 0	 1	-30	 30;
	 6	 22	 0	 0.025	 0	 1800	 1800	 1800	 1.07	 0	 1	-30	 30;
	 7	 8	 0.0004	 0.0046	 0.078	 900	 900	 900	 0	 0	 1	-30	 30;
	 8	 9	 0.0023	 0.0363	 0.3804	 900	 900	 900	 0	 0	 1	-30	 30;
	 9	 26	 0.001	 0.025	 1.2	 900	 900	 900	 0	 0	 1	-30	 30;
	 10	 11	 0.0004	 0.0043	 0.0729	 600	 600	 600	 0	 0	 1	-30	 30;
	 10	 13	 0.0004	 0.0043	 0.0729	 600	 600	 600	 0	 0	 1	-30	 30;
	 10	 23	 0	 0.02	 0	 900	 900	 2500	 1.07	 0	 1	-30	 30;
	 12	 11	 0.0016	 0.0435	 0	 500	 500	 500	 1.006	 0	 1	-30	 30;
	 12	 13	 0.0016	 0.0435	 0	 500	 500	 500	 1.006	 0	 1	-30	 30;
	 13	 14	 0.0009	 0.0101	 0.1723	 600	 600	 600	 0	 0	 1	-30	 30;
	 16	 17	 0.0032	 0.0323	 0.531	 600	 600	 600	 0	 0	 1	-30	 30;
	 16	 24	 0.0006	 0.0232	 0	 900	 900	 2500	 1.025	 0	 1	-30	 30;
	 17	 18	 0.0014	 0.0147	 0.2396	 600	 600	 600	 0	 0	 1	-30	 30;
	 17	 19	 0.0043	 0.0474	 0.7802	 600	 600	 600	 0	 0	 1	-30	 30;
	 17	 20	 0.0057	 0.0625	 1.029	 600	 600	 600	 0	 0	 1	-30	 30;
	 19	 20	 0.0014	 0.0151	 0.249	 600	 600	 600	 0	 0	 1	-30	 30;
	 20	 25	 0.0008	 0.0156	 0	 1200	 1200	 2500	 1.025	 0	 1	-30	 30;
];

mpc_regionR2.gencost = [
%	2           startup     shutdown    n           c(n-1)...c0 
	 2	 0	 0	 3	 0	 6.724778	 0;
	 2	 0	 0	 3	 0	 14.707625	 0;
	 2	 0	 0	 3	 0	 24.804734	 0;
	 2	 0	 0	 3	 0	 31.550181	 0;
	 2	 0	 0	 3	 0	 22.503168	 0;
	 2	 0	 0	 3	 0	 27.434444	 0;
];


% ---------- Interregional Tie-Line Information ----------
% Each row: {From_Region (string), To_Region (string), Branch_Data (1x13 array)}
% Branch_Data: {fbus, tbus, r, x, b, rateA, rateB, rateC, ratio, angle, status, angmin, angmax}

interregional_tielines_total = {
	{'mpc_regionR2', 'mpc_regionR1', [ 14	 1	 0.0018	 0.0217	 0.366	 600	 600	 600	 0	 0	 1	-30	 30]},
	{'mpc_regionR1', 'mpc_regionR2', [ 3	 15	 0.0007	 0.0082	 0.1319	 600	 600	 600	 0	 0	 1	-30	 30]},
	{'mpc_regionR1', 'mpc_regionR2', [ 3	 18	 0.0013	 0.0173	 0.3216	 600	 600	 600	 0	 0	 1	-30	 30]},
};

